Name: Pyrite FeS2
Type: Mineral
Class: Sulfides
Particle Size: Solid
Sample No.: pyrite.1
Owner: JHU
Wavelength Range: IR
Origin: Ambassaguas, Logrono, Castilla la Vieja, Spain via the
Description: Large cubic (3cm/side) piece with yellow metallic luster,
Measurement: Bidirectional reflectance
X Units: Wavelength (micrometers)
Y Units: Reflectance (percent)
wavelength	value
25.0442	51.4376
24.3388	61.8248
23.6719	60.0121
23.0407	45.2321
22.4422	7.0129
21.8741	13.5466
21.334	16.3933
20.8199	17.9768
20.33	19.0722
19.8627	19.965
19.4163	20.5627
18.9896	20.968
18.5812	21.2414
18.19	21.4782
17.815	21.8322
17.4551	22.0527
17.1094	22.3303
16.7772	22.4938
16.4576	22.614
16.15	22.7624
15.8537	22.9352
15.568	23.049
15.2925	23.163
15.0265	23.3891
14.7697	23.3784
14.5214	23.4865
14.2814	23.5617
14.0492	23.6032
13.8244	23.6723
13.6067	23.7419
13.3957	23.8137
13.1912	23.884
12.9929	23.9123
12.8004	24.0019
12.6135	24.0829
12.432	24.1015
12.2557	24.2516
12.0843	24.3327
11.9176	24.384
11.7555	24.4714
11.5977	24.5558
11.444	24.6017
11.2944	24.6235
11.1487	24.6662
11.0067	24.717
10.8682	24.7553
10.7332	24.7922
10.6015	24.8622
10.473	24.8788
10.3476	24.8735
10.2251	24.8408
10.1056	24.8674
9.98873	24.9006
9.87458	24.8967
9.763	24.9186
9.65392	24.9545
9.54724	24.9658
9.44291	24.956
9.34082	25.0056
9.24091	25.0383
9.14312	25.0551
9.04739	25.0693
8.95363	25.1083
8.8618	25.1464
8.77183	25.2023
8.68368	25.1884
8.59727	25.2077
8.51257	25.2868
8.42951	25.3317
8.34807	25.3603
8.26819	25.384
8.18981	25.3852
8.11292	25.4614
8.03745	25.4199
7.96337	25.4138
7.89064	25.4606
7.81924	25.4887
7.74911	25.5224
7.68023	25.5373
7.61256	25.5317
7.54608	25.5263
7.48074	25.5004
7.41653	25.5305
7.35341	25.5766
7.29136	25.5641
7.23034	25.5785
7.17033	25.5978
7.11132	25.6166
7.05327	25.6269
6.99616	25.6391
6.93996	25.6816
6.88467	25.6833
6.83024	25.6745
6.77667	25.6996
6.72393	25.7189
6.67201	25.7509
6.62089	25.7856
6.57054	25.8044
6.52095	25.8176
6.4721	25.8254
6.42398	25.8151
6.37657	25.8149
6.32986	25.822
6.28382	25.8376
6.23845	25.8552
6.19373	25.8647
6.14965	25.8654
6.10619	25.8659
6.06334	25.8669
6.02109	25.8867
5.97942	25.8935
5.93832	25.9064
5.89778	25.9218
5.8578	25.9492
5.81835	25.9614
5.77943	25.9623
5.74103	25.9609
5.70314	25.9765
5.66574	25.9955
5.62883	26.008
5.5924	26.0085
5.55644	26.0182
5.52093	26.029
5.48588	26.0339
5.45127	26.0441
5.41709	26.049
5.38334	26.051
5.35	26.0588
5.31708	26.0734
5.28456	26.0834
5.25243	26.0944
5.2207	26.1059
5.18934	26.1152
5.15836	26.121
5.12775	26.1262
5.09749	26.1318
5.0676	26.1323
5.03805	26.1291
5.00884	26.1291
4.97998	26.1262
4.95144	26.123
4.92322	26.1244
4.89533	26.1252
4.86775	26.1271
4.84048	26.1371
4.81351	26.152
4.78684	26.1633
4.76047	26.176
4.73439	26.1818
4.70859	26.1843
4.68306	26.1909
4.65782	26.196
4.63284	26.1989
4.60814	26.2033
4.58369	26.2043
4.5595	26.204
4.53557	26.2079
4.51188	26.2136
4.48845	26.2148
4.46525	26.2206
4.44229	26.2292
4.41957	26.2404
4.39708	26.2463
4.37481	26.2487
4.35277	26.2531
4.33096	26.2568
4.30935	26.2602
4.28797	26.2638
4.26679	26.2673
4.24583	26.2709
4.22506	26.2746
4.2045	26.278
4.18414	26.2802
4.16398	26.2817
4.14401	26.2834
4.12423	26.2858
4.10464	26.2949
4.08523	26.3075
4.066	26.3095
4.04696	26.3066
4.02809	26.2968
4.0094	26.2734
3.99088	26.2521
3.97253	26.249
3.95435	26.258
3.93634	26.2726
3.91848	26.2785
3.90079	26.2856
3.88326	26.2944
3.86589	26.3029
3.84867	26.3159
3.8316	26.3295
3.81468	26.34
3.79791	26.3439
3.78129	26.3459
3.76482	26.3454
3.74848	26.3346
3.73229	26.3144
3.71624	26.2975
3.70032	26.2841
3.68454	26.2707
3.6689	26.2678
3.65338	26.2719
3.638	26.2795
3.62275	26.289
3.60762	26.2919
3.59262	26.2939
3.57775	26.2927
3.56299	26.2873
3.54836	26.2819
3.53385	26.2787
3.51945	26.2707
3.50517	26.2658
3.49101	26.2668
3.47696	26.2707
3.46303	26.2743
3.4492	26.2731
3.43549	26.2731
3.42188	26.2817
3.40838	26.2853
3.39499	26.2636
3.38171	26.2499
3.36852	26.2746
3.35544	26.2826
3.34246	26.2692
3.32958	26.2565
3.3168	26.2621
3.30411	26.27
3.29153	26.2609
3.27903	26.2614
3.26664	26.2563
3.25433	26.2512
3.24212	26.2512
3.23	26.2485
3.21797	26.2458
3.20603	26.2475
3.19418	26.2529
3.18241	26.2538
3.17074	26.2536
3.15914	26.2541
3.14763	26.2514
3.13621	26.2504
3.12487	26.248
3.11361	26.2372
3.10243	26.2324
3.09133	26.2158
3.0803	26.197
3.06936	26.1752
3.0585	26.1471
3.04771	26.1276
3.037	26.1127
3.02636	26.11
3.0158	26.1152
3.00531	26.1157
2.99489	26.1169
2.98454	26.1186
2.97427	26.1188
2.96407	26.1244
2.95393	26.1291
2.94387	26.1298
2.93387	26.1388
2.92394	26.1491
2.91408	26.1625
2.90429	26.1733
2.89456	26.1818
2.88489	26.1904
2.87529	26.1974
2.86576	26.2011
2.85628	26.2023
2.84687	26.2009
2.83752	26.1943
2.82823	26.1867
2.81901	26.1821
2.80984	26.1823
2.80073	26.1882
2.79168	26.1952
2.78269	26.2133
2.77376	26.2133
2.76488	26.2114
2.75606	26.2145
2.7473	26.2035
2.73859	26.197
2.72994	26.195
2.72134	26.1994
2.7128	26.2016
2.70431	26.2177
2.69587	26.2192
2.68748	26.2258
2.67915	26.2331
2.67087	26.2204
2.66264	26.2309
2.65446	26.2192
2.64633	26.2136
2.63825	26.2043
2.63021	26.1918
2.62223	26.1786
2.6143	26.1767
2.60641	26.1638
2.59857	26.1616
2.59078	26.173
2.58304	26.1679
2.57534	26.1618
2.56768	26.162
2.56008	26.1552
2.55251	26.1391
2.54499	26.1288
2.53752	26.1213
2.53009	26.112
2.5227	26.1017
2.51536	26.1017
2.50806	26.0976
2.5008	26.0995
2.49358	26.1044
2.4864	26.0973
2.47927	26.1005
2.47218	26.0991
2.46512	26.0937
2.45811	26.0895
2.45114	26.0895
2.4442	26.0829
2.43731	26.0837
2.43045	26.081
2.42363	26.0893
2.41685	26.0866
2.41011	26.09
2.40341	26.0939
2.39674	26.091
2.39011	26.0822
2.38352	26.0712
2.37696	26.0588
2.37044	26.0444
2.36395	26.0326
2.35751	26.0268
2.35109	26.0143
2.34471	26.0114
2.33836	26.0068
2.33205	26.0051
2.32578	26.0026
2.31953	26.0026
2.31332	25.9951
2.30714	25.9999
2.301	25.999
2.29489	25.999
2.28881	25.9951
2.28276	26.0058
2.27675	26.0104
2.27076	26.0243
2.26481	26.0307
2.25889	26.0463
2.253	26.05
2.24714	26.0551
2.24131	26.0563
2.23551	26.0534
2.22974	26.0436
2.224	26.0287
2.21829	26.009
2.21261	26.0021
2.20696	25.9909
2.20134	25.985
2.19574	25.9711
2.19018	25.9677
2.18464	25.9621
2.17913	25.9579
2.17365	25.9677
2.16819	25.9609
2.16277	25.9658
2.15737	25.9726
2.15199	25.9714
2.14665	25.9806
2.14133	25.9946
2.13603	26.0129
2.13077	26.0251
2.12552	26.0409
2.12031	26.0561
2.11512	26.0732
2.10995	26.0842
2.10481	26.081
2.0997	26.0727
2.09461	26.0661
2.08954	26.0563
2.0845	26.0468
2.07948	26.0302
