Name: Pyrrhotite Fe(1-x)S
Type: Mineral
Class: Sulfides
Particle Size: Solid
Sample No.: pyroph.1
Owner: JHU
Wavelength Range: IR
Origin: Stoneham, Maine, USA via the Smithsonian (sample no. NMNH
Description: The sample consisted of two large fragments and many
Measurement: Bidirectional reflectance
X Units: Wavelength (micrometers)
Y Units: Reflectance (percent)
wavelength	value
25.0442	34.6523
24.3388	35.1757
23.6719	35.203
23.0407	35.1913
22.4422	34.9218
21.8741	34.8368
21.334	34.8319
20.8199	34.6718
20.33	34.3695
19.8627	34.016
19.4163	33.7367
18.9896	33.5922
18.5812	33.4687
18.19	33.3793
17.815	33.1947
17.4551	32.9438
17.1094	32.5243
16.7772	32.3586
16.4576	32.2558
16.15	32.0939
15.8537	31.9638
15.568	32.1508
15.2925	32.2973
15.0265	32.2167
14.7697	32.3095
14.5214	32.5109
14.2814	32.5605
14.0492	32.6349
13.8244	32.6496
13.6067	32.6371
13.3957	32.4325
13.1912	32.0133
12.9929	31.4074
12.8004	30.7406
12.6135	30.4653
12.432	30.5773
12.2557	30.8381
12.0843	31.0627
11.9176	31.0087
11.7555	30.6242
11.5977	30.0207
11.444	29.599
11.2944	29.6606
11.1487	30.0595
11.0067	30.5238
10.8682	30.9335
10.7332	31.1069
10.6015	30.9809
10.473	30.6347
10.3476	30.266
10.2251	29.995
10.1056	29.8432
9.98873	29.6801
9.87458	29.454
9.763	29.2729
9.65392	28.9042
9.54724	28.7035
9.44291	28.5453
9.34082	28.1835
9.24091	28.0209
9.14312	27.9189
9.04739	27.5346
8.95363	27.1342
8.8618	26.9941
8.77183	27.1154
8.68368	27.6093
8.59727	27.8339
8.51257	27.7226
8.42951	27.5551
8.34807	27.5229
8.26819	27.6337
8.18981	27.9892
8.11292	28.3373
8.03745	28.7668
7.96337	29.1357
7.89064	29.32
7.81924	29.2656
7.74911	29.0658
7.68023	28.7055
7.61256	28.2614
7.54608	28.058
7.48074	27.8261
7.41653	27.5248
7.35341	27.2265
7.29136	27.0038
7.23034	26.7192
7.17033	26.3434
7.11132	25.8874
7.05327	25.4252
6.99616	25.2077
6.93996	25.1545
6.88467	25.0944
6.83024	25.1679
6.77667	25.27
6.72393	25.2162
6.67201	24.9997
6.62089	24.6852
6.57054	24.3203
6.52095	24.0287
6.4721	23.7385
6.42398	23.4411
6.37657	23.2219
6.32986	22.9682
6.28382	22.6965
6.23845	22.3705
6.19373	21.9538
6.14965	21.5978
6.10619	21.373
6.06334	21.2314
6.02109	21.2307
5.97942	21.3459
5.93832	21.456
5.89778	21.5615
5.8578	21.5366
5.81835	21.4567
5.77943	21.3212
5.74103	21.1586
5.70314	21.04
5.66574	20.8735
5.62883	20.7067
5.5924	20.5725
5.55644	20.456
5.52093	20.3593
5.48588	20.2485
5.45127	20.1206
5.41709	19.9687
5.38334	19.8278
5.35	19.6652
5.31708	19.5209
5.28456	19.373
5.25243	19.2275
5.2207	19.0849
5.18934	18.9494
5.15836	18.8034
5.12775	18.6713
5.09749	18.5405
5.0676	18.4084
5.03805	18.2707
5.00884	18.134
4.97998	17.9965
4.95144	17.861
4.92322	17.7368
4.89533	17.6106
4.86775	17.4931
4.84048	17.3791
4.81351	17.2646
4.78684	17.1567
4.76047	17.05
4.73439	16.945
4.70859	16.8344
4.68306	16.7324
4.65782	16.6269
4.63284	16.5146
4.60814	16.4079
4.58369	16.3017
4.5595	16.1994
4.53557	16.0998
4.51188	16.0012
4.48845	15.8986
4.46525	15.8007
4.44229	15.706
4.41957	15.6093
4.39708	15.5156
4.37481	15.4226
4.35277	15.331
4.33096	15.2343
4.30935	15.1294
4.28797	15.0232
4.26679	14.9499
4.24583	14.8527
4.22506	14.7649
4.2045	14.7373
4.18414	14.6633
4.16398	14.583
4.14401	14.5014
4.12423	14.4218
4.10464	14.3401
4.08523	14.2641
4.066	14.1792
4.04696	14.0883
4.02809	13.9922
4.0094	13.8989
3.99088	13.8203
3.97253	13.7539
3.95435	13.7016
3.93634	13.655
3.91848	13.6074
3.90079	13.5595
3.88326	13.5058
3.86589	13.4423
3.84867	13.3684
3.8316	13.2878
3.81468	13.2055
3.79791	13.1135
3.78129	13.0178
3.76482	12.9214
3.74848	12.8237
3.73229	12.7278
3.71624	12.6382
3.70032	12.5498
3.68454	12.4626
3.6689	12.3774
3.65338	12.3027
3.638	12.2265
3.62275	12.1494
3.60762	12.0771
3.59262	11.9958
3.57775	11.9204
3.56299	11.8413
3.54836	11.7583
3.53385	11.6706
3.51945	11.5576
3.50517	11.4006
3.49101	11.3857
3.47696	11.3261
3.46303	11.2417
3.4492	11.1303
3.43549	10.9897
3.42188	10.8154
3.40838	10.7788
3.39499	10.7334
3.38171	10.6445
3.36852	10.5664
3.35544	10.4746
3.34246	10.3628
3.32958	10.2217
3.3168	10.0893
3.30411	9.9507
3.29153	9.8017
3.27903	9.6518
3.26664	9.4956
3.25433	9.3257
3.24212	9.1533
3.23	8.9687
3.21797	8.768
3.20603	8.5591
3.19418	8.3545
3.18241	8.164
3.17074	8
3.15914	7.8623
3.14763	7.7514
3.13621	7.6772
3.12487	7.6352
3.11361	7.6186
3.10243	7.625
3.09133	7.6484
3.0803	7.6958
3.06936	7.7583
3.0585	7.834
3.04771	7.9214
3.037	8.0195
3.02636	8.1218
3.0158	8.2239
3.00531	8.3252
2.99489	8.4236
2.98454	8.5212
2.97427	8.6189
2.96407	8.716
2.95393	8.8171
2.94387	8.9123
2.93387	9.0112
2.92394	9.1252
2.91408	9.2551
2.90429	9.3884
2.89456	9.5302
2.88489	9.674
2.87529	9.8301
2.86576	10.0061
2.85628	10.2043
2.84687	10.4258
2.83752	10.6692
2.82823	10.9341
2.81901	11.2221
2.80984	11.5295
2.80073	11.8454
2.79168	12.1635
2.78269	12.478
2.77376	12.7844
2.76488	13.0576
2.75606	13.2837
2.7473	13.509
2.73859	13.6613
2.72994	13.7895
2.72134	13.844
2.7128	13.9282
2.70431	13.9907
2.69587	14.0141
2.68748	14.0527
2.67915	14.0576
2.67087	14.0559
2.66264	14.1093
2.65446	14.1186
2.64633	14.132
2.63825	14.1457
2.63021	14.133
2.62223	14.1613
2.6143	14.1772
2.60641	14.1753
2.59857	14.2177
2.59078	14.2461
2.58304	14.2636
2.57534	14.3027
2.56768	14.3361
2.56008	14.3667
2.55251	14.3925
2.54499	14.4221
2.53752	14.4492
2.53009	14.478
2.5227	14.499
2.51536	14.5258
2.50806	14.5432
2.5008	14.5625
2.49358	14.5803
2.4864	14.5932
2.47927	14.6035
2.47218	14.6069
2.46512	14.6233
2.45811	14.6347
2.45114	14.6411
2.4442	14.6555
2.43731	14.6626
2.43045	14.6916
2.42363	14.7011
2.41685	14.7258
2.41011	14.749
2.40341	14.7763
2.39674	14.801
2.39011	14.8261
2.38352	14.8567
2.37696	14.8752
2.37044	14.9033
2.36395	14.9287
2.35751	14.9426
2.35109	14.9638
2.34471	14.9817
2.33836	14.9936
2.33205	15.0073
2.32578	15.0175
2.31953	15.0317
2.31332	15.0478
2.30714	15.0493
2.301	15.0605
2.29489	15.0678
2.28881	15.08
2.28276	15.0879
2.27675	15.104
2.27076	15.1289
2.26481	15.1445
2.25889	15.1621
2.253	15.1782
2.24714	15.2055
2.24131	15.2334
2.23551	15.2387
2.22974	15.2622
2.224	15.2797
2.21829	15.2944
2.21261	15.3012
2.20696	15.3227
2.20134	15.3252
2.19574	15.3437
2.19018	15.3476
2.18464	15.3574
2.17913	15.3593
2.17365	15.3603
2.16819	15.3623
2.16277	15.3637
2.15737	15.3769
2.15199	15.3789
2.14665	15.3867
2.14133	15.3935
2.13603	15.4062
2.13077	15.415
2.12552	15.4345
2.12031	15.4477
2.11512	15.4594
2.10995	15.4726
2.10481	15.4921
2.0997	15.5029
2.09461	15.5083
2.08954	15.5258
2.0845	15.5332
2.07948	15.5317
